* STTH8R06D - Model SPICE
* Uproszczony model diody ultraszybkiej 600 V, 8 A

.SUBCKT STTH8R06D 1 2
D1 1 2 D_STTH8R06D
.MODEL D_STTH8R06D D (IS=1e-9 RS=0.02 N=1.5 BV=600 IBV=0.1 CJO=50p M=0.5 TT=25n)
.ENDS STTH8R06D
